#Put Keywords Here, check Charge and Multiplicity.

 

0  1
C          -1.79372         0.23030        -0.68921
C          -0.27344         0.22555        -0.67643
C           0.27343        -0.22496         0.67663
C           1.79372        -0.23071         0.68907
H          -2.16355         0.55581        -1.66654
H          -2.19030         0.91329         0.06881
H          -2.19083        -0.77055        -0.49184
H           0.09139         1.23280        -0.90906
H           0.09079        -0.44161        -1.46638
H          -0.09196        -1.23193         0.90962
H          -0.09023         0.44265         1.46645
H           2.18966        -0.91437        -0.06869
H           2.16355        -0.55601         1.66647
H           2.19148         0.76976         0.49110

