#Put Keywords Here, check Charge and Multiplicity.

 

0  1
C          -0.50922         1.24672        -0.00266
C           0.88296         1.32319         0.03037
C           1.64474         0.15408         0.04120
C           1.01428        -1.09123         0.01994
C          -0.37921        -1.16988        -0.01341
C          -1.12971         0.00263        -0.02554
O          -2.49262        -0.02691        -0.06113
H          -1.10787         2.15291        -0.01143
H           1.37236         2.29325         0.04715
H           2.72981         0.21384         0.06626
H           1.61007        -2.00019         0.02950
H          -0.85617        -2.14435        -0.02883
H          -2.77943        -0.95408        -0.09142

